/*--------------------------------*- C++ -*----------------------------------*\
| =========                 |                                                 |
| \\      /  F ield         | OpenFOAM: The Open Source CFD Toolbox           |
|  \\    /   O peration     | Version:  v2312                                 |
|   \\  /    A nd           | Website:  www.openfoam.com                      |
|    \\/     M anipulation  |                                                 |
\*---------------------------------------------------------------------------*/
FoamFile
{
    version     2.0;
    format      ascii;
    class       dictionary;
    object      fvSolution;
}
// * * * * * * * * * * * * * * * * * * * * * * * * * * * * * * * * * * * * * //

solvers
{
    rho
    {
        solver          PCG;
        preconditioner  DIC;
        tolerance       1e-7;
        relTol          0.1;
    }

    rhoFinal
    {
        $rho;
        tolerance       1e-7;
        relTol          0;
    }

    p_rgh
    {
        solver           GAMG;
        tolerance        1e-6;
        relTol           0.01;
        smoother         GaussSeidel;
    }

    p_rghFinal
    {
        $p_rgh;
        tolerance        1e-6;
        relTol           0;
    }

    "(U|h|k|omega|R|e)"
    {
        solver           PBiCGStab;
        preconditioner   DILU;
        tolerance        1e-7;
        relTol           0.1;
    }

    "(U|h|k|omega|R|e)Final"
    {
        $U;
        tolerance        1e-7;
        relTol           0;
    }
}

PIMPLE
{
    momentumPredictor   yes;
    nCorrectors         1;
    nNonOrthogonalCorrectors 2;
    pRefCell    0;
    pRefValue    0;
    
}

relaxationFactors
{

    fields
    {
    p        0.3;
 
    }    

    equations
    {
        U               1;
        k               0.1;
        omega           1;
        "h.*"           1;
         "e.*"           1;

        

    }
}


// ************************************************************************* //
